LAMMPS (27 Jun 2024)
units real
atom_style full

bond_style     harmonic
angle_style    harmonic
dihedral_style opls
improper_style cvff

pair_style lj/cut/coul/long 5

kspace_style pppm 1e-6

read_data OCCO.data
Reading data file ...
  orthogonal box = (-2.00746 0.1121 -0.93269) to (47.99254 50.1121 49.06731)
  reading atoms ...
  10 atoms
  scanning bonds ...
  scanning angles ...
  scanning dihedrals ...
  scanning impropers ...
  orthogonal box = (-2.00746 0.1121 -0.93269) to (47.99254 50.1121 49.06731)
  reading bonds ...
  9 bonds
  reading angles ...
  14 angles
  reading dihedrals ...
  15 dihedrals
  reading impropers ...
  4 impropers
Finding 1-2 1-3 1-4 neighbors ...
     4 = max # of 1-2 neighbors
     4 = max # of 1-3 neighbors
     7 = max # of 1-4 neighbors
     9 = max # of special neighbors

timestep 0.5

dump atom all atom 2000 traj.atom

fix nvt all nvt temp 300 300 200

fix recenter all recenter INIT INIT INIT

compute msd all msd
fix msd all ave/time 2000 1 2000 c_msd file msd.msd mode vector

thermo_style one
thermo 2000

run 20000

CITE-CITE-CITE-CITE-CITE-CITE-CITE-CITE-CITE-CITE-CITE-CITE-CITE

Your simulation uses code contributions which should be cited:

- Type Label Framework: https://doi.org/10.1021/acs.jpcb.3c08419

@Article{Gissinger24,
 author = {Jacob R. Gissinger, Ilia Nikiforov, Yaser Afshar, Brendon Waters, Moon-ki Choi, Daniel S. Karls, Alexander Stukowski, Wonpil Im, Hendrik Heinz, Axel Kohlmeyer, and Ellad B. Tadmor},
 title = {Type Label Framework for Bonded Force Fields in LAMMPS},
 journal = {J. Phys. Chem. B},
 year =    2024,
 volume =  128,
 number =  13,
 pages =   {3282â€“-3297}
}

CITE-CITE-CITE-CITE-CITE-CITE-CITE-CITE-CITE-CITE-CITE-CITE-CITE

PPPM initialization ...
  G vector (1/distance) = 0.53496399
  grid = 54 54 54
  stencil order = 5
  estimated absolute RMS force accuracy = 0.00032372018
  estimated relative force accuracy = 9.7487372e-07
  3d grid and FFT values/proc = 51850 26244
Generated 45 of 45 mixed pair_coeff terms from geometric mixing rule
Step          Temp          E_pair         E_mol          TotEng         Press
0   0             -25.084855      8.6119798     -16.472876     -23.953752
Averages over the last 6 of 11 rows, steps 10000 to 20000:
Temp E_pair E_mol TotEng Press
269.816 -11.9868 8.10334 3.35502 20.4674
Loop time of 176.24 on 6 procs for 20000 steps with 10 atoms

write_data *.data
System init for write_data ...
PPPM initialization ...
  G vector (1/distance) = 0.53496399
  grid = 54 54 54
  stencil order = 5
  estimated absolute RMS force accuracy = 0.00032372018
  estimated relative force accuracy = 9.7487372e-07
  3d grid and FFT values/proc = 51850 26244
Generated 45 of 45 mixed pair_coeff terms from geometric mixing rule
